#!/bin/csh

cat > namelist.input << EOF
 &time_control
 run_days               = ${run_days},
 run_hours              = 0,
 run_minutes            = 0,
 run_seconds            = 0,
 start_year             = ${START_YR}, ${START_YR}, ${START_YR},
 start_month            = ${START_MO}, ${START_MO}, ${START_MO},
 start_day              = ${START_DY}, ${START_DY}, ${START_DY},
 start_hour             = ${START_HR}, ${START_HR}, ${START_HR},
 start_minute           = 00,   00,   00,
 start_second           = 00,   00,   00,
 end_year               = ${END_YR}, ${END_YR}, ${END_YR},
 end_month              = ${END_MO}, ${END_MO}, ${END_MO},
 end_day                = ${END_DY}, ${END_DY}, ${END_DY},
 end_hour               = ${END_HR}, ${END_HR}, ${END_HR},
 end_minute             = 00,   00,   00,
 end_second             = 00,   00,   00,
 interval_seconds       = 21600
 input_from_file        = .true.,.true.,.true.,
 history_interval       = 60,  60,  60,
 frames_per_outfile     = 24,  24,  24,
 restart                = ${restart},
 restart_interval       = 1440,
 write_hist_at_0h_rst   = .true.
 io_form_history        = 2
 io_form_restart        = 2
 io_form_input          = 2
 io_form_boundary       = 2
 debug_level            = 0
 auxinput1_inname       = "metoa_em.d<domain>.<date>"
 auxinput4_inname       = "wrflowinp_d<domain>"
 auxinput4_interval     = 360, 360, 360,
 io_form_auxinput4      = 2,
 auxinput11_interval_s  = 180, 180, 180,
 auxinput11_end_h       = 6, 6, 6,
 /

 &domains
 time_step              = 180,
 time_step_fract_num    = 0,
 time_step_fract_den    = 1,
 max_dom                = ${wrf.max_dom},
 e_we                   = ${wrf.e_we},
 e_sn                   = ${wrf.e_sn},
 s_vert                 = 1,     1,     1,
 e_vert                 = ${wrf.e_vert},   ${wrf.e_vert},    ${wrf.e_vert},
 num_metgrid_soil_levels = 4
 num_metgrid_levels     = 32
 dx                     = ${wrf.dx},
 dy                     = ${wrf.dy},
 grid_id                = 1,     2,     3,
 parent_id              = ${wrf.parent_id},
 i_parent_start         = ${wrf.i_parent_start},
 j_parent_start         = ${wrf.j_parent_start},
 parent_grid_ratio      = ${wrf.parent_grid_ratio},
 parent_time_step_ratio = ${wrf.parent_time_step_ratio},
 feedback               = 0,
 smooth_option          = 0
 lowest_lev_from_sfc    = .false.,
 p_top_requested        = 10000,
 eta_levels             = ${wrf.eta_levels}
 /

 &physics
 mp_physics             = ${mp_physics},
 ra_lw_physics          = ${ra_lw_physics},
 ra_sw_physics          = ${ra_sw_physics},
 radt                   = ${radt},
 sf_sfclay_physics      = ${sf_sfclay_physics},
 sf_surface_physics     = ${sf_surface_physics},
 bl_pbl_physics         = ${bl_pbl_physics},
 bldt                   = ${bldt},
 cu_physics             = ${cu_physics},
 cudt                   = ${cudt},
 isfflx                 = 1,
 ifsnow                 = 0,
 icloud                 = 1,
 surface_input_source   = 1,
 num_soil_layers        = 2,
 num_land_cat           = 24,
 pxlsm_smois_init       = ${wrf.pxlsm_smois_init}
 maxiens                = 1,
 maxens                 = 3,
 maxens2                = 3,
 maxens3                = 16,
 ensdim                 = 144,
 sst_update             = 1,
 /

 &fdda
 grid_fdda              = ${wrf.do_fdda},${wrf.do_fdda},${wrf.do_fdda},
 gfdda_inname           = "wrffdda_d<domain>",
 gfdda_end_h            = 132,   132,   132,
 gfdda_interval_m       = 360,   360,   360,
 fgdt                   = 0,     0,     0,
 if_no_pbl_nudging_uv   = 0,     0,     0,
 if_no_pbl_nudging_t    = 1,     1,     1,
 if_no_pbl_nudging_q    = 1,     1,     1,
 if_zfac_uv             = 0,     0,     0,
  k_zfac_uv             =10,    10,    10,
 if_zfac_t              = 0,     0,     0,
  k_zfac_t              =10,    10,    10,
 if_zfac_q              = 0,     0,     0,
  k_zfac_q              =10,    10,    10,
 guv                    = 0.0003,     0.0003,     0.0003,
 gt                     = 0.0003,     0.0003,     0.0003,
 gq                     = 0.0003,     0.0003,     0.0003,
 if_ramping             = 0,
 dtramp_min             = 60.0,
 io_form_gfdda          = 2,
 grid_sfdda             = ${wrf.do_sfdda},${wrf.do_sfdda},${wrf.do_sfdda},
 sgfdda_inname          = "wrfsfdda_d<domain>",
 sgfdda_end_h           = 132,   132,   132,
 sgfdda_interval_m      = 360,   360,   360,
 io_form_sgfdda         = 2,
 guv_sfc                = 0.0003,     0.0003,     0.0003,
 gt_sfc                 = 0.0003,     0.0003,     0.0003,
 gq_sfc                 = 0.0003,     0.0003,     0.0003,
 rinblw                 = 250.,
 obs_nudge_opt          = ${wrf.do_obsgrid},
 max_obs                = 150000,
 fdda_start             = 0., 0.,
 fdda_end               = 99999.,    99999.,    99999.,
 obs_nudge_wind         = 1,         1,         1,
 obs_coef_wind          = 6.E-4,     6.E-4,     6.E-4,
 obs_nudge_temp         = 1,         1,         1,
 obs_coef_temp          = 6.E-4,     6.E-4,     6.E-4,
 obs_nudge_mois         = 1,         1,         1,
 obs_coef_mois          = 6.E-4,     6.E-4,     6.E-4,
 obs_rinxy              = 240.,      240.,      240.,
 obs_rinsig             = 0.1,
 obs_twindo             = 0.6666667, 0.6666667, 0.6666667,
 obs_npfi               = 10,
 obs_ionf               = 2,         2,         2,
 obs_idynin             = 0,
 obs_dtramp             = 40.,
 obs_prt_freq           = 10,        10,        10,
 obs_prt_max            = 10
 obs_ipf_errob          = .true.
 obs_ipf_nudob          = .true.
 obs_ipf_in4dob         = .true.
 obs_ipf_init           = .true.
 /

 &dynamics
 w_damping              = 0,
 diff_opt               = 1,
 km_opt                 = 4,
 diff_6th_opt           = 0,      0,
 diff_6th_factor        = 0.12,   0.12,   0.12,
 base_temp              = 290.
 damp_opt               = 0,
 zdamp                  = 5000.,  5000.,  5000.,
 dampcoef               = 0.2,    0.2,    0.2,
 khdif                  = 0,      0,      0,
 kvdif                  = 0,      0,      0,
 non_hydrostatic        = .true., .true., .true.,
 moist_adv_opt          = 1,      1,      1,
 scalar_adv_opt         = 1,      1,      1,
 /

 &bdy_control
 spec_bdy_width         = 10,
 spec_zone              = 1,
 relax_zone             = 9,
 spec_exp               = 0.33,
 specified              = .true., .false., .false.,
 nested                 =.false.,  .true.,  .true.,
 /

 &grib2
 /

 &namelist_quilt
 nio_tasks_per_group    = 0,
 nio_groups             = 1,
 /
EOF
