#!/bin/csh

&share
 wrf_core = 'ARW',
 max_dom = 3,
 start_date = '${START_TIME}:00:00','${START_TIME}:00:00','${START_TIME}:00:00',
 end_date   = '${END_TIME}:00:00','${END_TIME}:00:00','${END_TIME}:00:00',
 interval_seconds = 21600
 opt_output_from_geogrid_path = ${geogrid_data_path},
 io_form_geogrid = 2,
/

&ungrib
 out_format = 'WPS',
 prefix = '${ungrib_file}',
/
EOF
